Version 4
SHEET 1 1304 1004
WIRE 880 352 688 352
WIRE 1072 352 880 352
WIRE 1232 352 1072 352
WIRE 1232 384 1232 352
WIRE 688 400 688 352
WIRE 880 400 880 352
WIRE 1072 400 1072 352
WIRE 256 496 96 496
WIRE 480 496 336 496
WIRE 688 496 688 464
WIRE 688 496 480 496
WIRE 96 624 96 496
WIRE 256 624 96 624
WIRE 480 624 336 624
WIRE 880 624 880 464
WIRE 880 624 480 624
WIRE 96 656 96 624
WIRE 96 656 32 656
WIRE 1232 672 1232 448
WIRE 32 704 32 656
WIRE 96 768 96 656
WIRE 256 768 96 768
WIRE 480 768 336 768
WIRE 1072 768 1072 464
WIRE 1072 768 480 768
WIRE 688 832 688 496
WIRE 880 832 880 624
WIRE 1072 832 1072 768
WIRE 1232 832 1232 672
WIRE 688 960 688 896
WIRE 880 960 880 896
WIRE 880 960 688 960
WIRE 1072 960 1072 896
WIRE 1072 960 880 960
WIRE 1232 960 1232 896
WIRE 1232 960 1072 960
FLAG 32 704 0
FLAG 480 496 R
FLAG 480 624 S
FLAG 480 768 T
FLAG 1232 352 VBus+
FLAG 1232 672 V0
FLAG 1232 960 Vbus-
SYMBOL voltage 352 496 R90
WINDOW 0 -32 56 VBottom 2
WINDOW 3 32 56 VTop 2
WINDOW 123 0 0 Left 0
WINDOW 39 0 0 Left 0
SYMATTR InstName V1
SYMATTR Value SINE(0 377 60 0 0 0)
SYMBOL voltage 352 624 R90
WINDOW 0 -32 56 VBottom 2
WINDOW 3 32 56 VTop 2
WINDOW 123 0 0 Left 0
WINDOW 39 0 0 Left 0
SYMATTR InstName V2
SYMATTR Value SINE(0 377 60 0 0 120)
SYMBOL voltage 352 768 R90
WINDOW 0 -32 56 VBottom 2
WINDOW 3 32 56 VTop 2
WINDOW 123 0 0 Left 0
WINDOW 39 0 0 Left 0
SYMATTR InstName V3
SYMATTR Value SINE(0 377 60 0 0 -120)
SYMBOL diode 704 464 R180
WINDOW 0 24 64 Left 2
WINDOW 3 24 0 Left 2
SYMATTR InstName D1
SYMATTR Value VS-E5PH7506
SYMBOL diode 704 896 R180
WINDOW 0 24 64 Left 2
WINDOW 3 24 0 Left 2
SYMATTR InstName D2
SYMATTR Value VS-E5PH7506
SYMBOL diode 896 464 R180
WINDOW 0 24 64 Left 2
WINDOW 3 24 0 Left 2
SYMATTR InstName D3
SYMATTR Value VS-E5PH7506
SYMBOL diode 896 896 R180
WINDOW 0 24 64 Left 2
WINDOW 3 24 0 Left 2
SYMATTR InstName D4
SYMATTR Value VS-E5PH7506
SYMBOL diode 1088 464 R180
WINDOW 0 24 64 Left 2
WINDOW 3 24 0 Left 2
SYMATTR InstName D5
SYMATTR Value VS-E5PH7506
SYMBOL diode 1088 896 R180
WINDOW 0 24 64 Left 2
WINDOW 3 24 0 Left 2
SYMATTR InstName D6
SYMATTR Value VS-E5PH7506
SYMBOL cap 1216 384 R0
SYMATTR InstName C1
SYMATTR Value 500µ
SYMBOL cap 1216 832 R0
SYMATTR InstName C2
SYMATTR Value 500µ
TEXT -48 32 Left 2 !.param f_motor=47\n.param f_carrier=10K\n.param Amod=0.9\n.param motor_L=20m\n.param motor_R=500m\n.param motor_V=397
TEXT -40 0 Left 2 !.tran 100m
TEXT 632 -24 Left 2 !.plot v(VBus+) - v(VBus-)
TEXT 864 296 Left 2 !.ic v(C1) = 200\n.ic v(C2) = 200
